Version 4.1
SHEET 1 880 680
WIRE 544 -128 384 -128
WIRE 800 -128 544 -128
WIRE 384 -96 384 -128
WIRE 544 -96 544 -128
WIRE 800 -96 800 -128
WIRE 544 0 544 -16
WIRE 544 0 464 0
WIRE 624 0 544 0
WIRE 464 16 464 0
WIRE 800 32 800 -16
WIRE 544 80 544 0
WIRE 208 112 80 112
WIRE 384 112 384 -16
WIRE 384 112 272 112
WIRE 464 112 464 80
WIRE 464 112 384 112
WIRE 464 128 464 112
WIRE 480 128 464 128
WIRE 80 144 80 112
WIRE 384 144 384 112
WIRE 560 176 544 176
WIRE 560 192 560 176
WIRE 704 192 560 192
WIRE 560 208 560 192
WIRE 704 208 704 192
WIRE 80 336 80 224
WIRE 384 336 384 224
WIRE 560 336 560 288
WIRE 704 336 704 272
FLAG 80 336 0
FLAG 384 336 0
FLAG 560 336 0
FLAG 704 336 0
FLAG 800 32 0
FLAG 80 112 INPUT
FLAG 624 0 OUTPUT
IOPIN 624 0 Out
SYMBOL voltage 80 128 R0
WINDOW 123 24 124 Left 2
WINDOW 39 0 0 Left 0
SYMATTR InstName V1
SYMATTR Value ""
SYMATTR Value2 AC 1
SYMBOL cap 272 96 R90
WINDOW 0 0 32 VBottom 2
WINDOW 3 32 32 VTop 2
SYMATTR InstName Decoupling_C1
SYMATTR Value 1µ
SYMBOL res 368 128 R0
SYMATTR InstName R1
SYMATTR Value 10K
SYMBOL res 368 -112 R0
SYMATTR InstName R2
SYMATTR Value 100K
SYMBOL res 528 -112 R0
SYMATTR InstName Collector_R3
SYMATTR Value 20K
SYMBOL cap 448 16 R0
SYMATTR InstName C2
SYMATTR Value 100p
SYMBOL npn 480 80 R0
SYMATTR InstName Q1
SYMATTR Value 2N3904
SYMBOL res 544 192 R0
SYMATTR InstName Emitter_R4
SYMATTR Value 1K
SYMBOL cap 688 208 R0
SYMATTR InstName Bypass_C3
SYMATTR Value 20µ
SYMBOL voltage 800 -112 R0
WINDOW 123 0 0 Left 0
WINDOW 39 0 0 Left 0
SYMATTR InstName V2
SYMATTR Value 12V
TEXT 56 376 Left 2 !.ac oct 10 1 10Meg
